Version 4
SHEET 1 880 680
WIRE 352 0 128 0
WIRE 496 0 352 0
WIRE 128 32 128 0
WIRE 352 32 352 0
WIRE -320 128 -320 112
WIRE -16 160 -144 160
WIRE 208 160 48 160
WIRE 352 160 352 112
WIRE 352 160 272 160
WIRE 384 160 352 160
WIRE 496 176 496 0
WIRE 496 176 448 176
WIRE 544 176 496 176
WIRE 384 192 352 192
WIRE 128 208 128 96
WIRE 352 240 352 192
WIRE 128 320 128 288
FLAG 128 320 0
FLAG 352 240 0
FLAG 544 176 V2
IOPIN 544 176 Out
FLAG -112 96 0
FLAG -112 16 V1
IOPIN -112 16 Out
FLAG -144 160 V1
IOPIN -144 160 In
FLAG 416 144 +15V
IOPIN 416 144 In
FLAG 416 208 -15V
IOPIN 416 208 In
FLAG -320 112 0
FLAG -320 32 +15V
FLAG -320 208 -15V
SYMBOL cap -16 176 R270
WINDOW 0 32 32 VTop 0
WINDOW 3 0 32 VBottom 0
SYMATTR InstName C1
SYMATTR Value 9n
SYMBOL cap 208 176 R270
WINDOW 0 32 32 VTop 0
WINDOW 3 -2 32 VBottom 0
SYMATTR InstName C2
SYMATTR Value 2.2n
SYMBOL cap 112 32 R0
SYMATTR InstName C3
SYMATTR Value 3n
SYMBOL res 112 192 R0
SYMATTR InstName R1
SYMATTR Value 2229
SYMBOL res 336 16 R0
SYMATTR InstName R2
SYMATTR Value 19683
SYMBOL voltage -112 0 R0
WINDOW 123 24 132 Left 0
WINDOW 39 0 0 Left 0
SYMATTR Value2 AC 1 0
SYMATTR InstName V1
SYMATTR Value ""
SYMBOL Opamps\\UniversalOpamp2 416 176 R0
SYMATTR InstName U2
SYMBOL voltage -320 112 R0
WINDOW 123 0 0 Left 0
WINDOW 39 0 0 Left 0
SYMATTR InstName V2
SYMATTR Value 15
SYMBOL voltage -320 16 R0
WINDOW 123 0 0 Left 0
WINDOW 39 0 0 Left 0
SYMATTR InstName V3
SYMATTR Value 15
TEXT -64 344 Left 0 !.ac dec 1000 10 1Meg
