Version 4
SHEET 1 2832 788
WIRE -48 -592 -304 -592
WIRE -160 -544 -240 -544
WIRE -240 -528 -240 -544
WIRE -240 -416 -240 -448
WIRE -160 -416 -240 -416
WIRE -240 -384 -240 -416
WIRE -160 -384 -160 -416
WIRE 416 -336 224 -336
WIRE 576 -336 416 -336
WIRE 416 -320 416 -336
WIRE -240 -272 -240 -304
WIRE -160 -272 -240 -272
WIRE 96 -208 48 -208
WIRE 224 -208 224 -256
WIRE 224 -208 176 -208
WIRE 256 -208 224 -208
WIRE 416 -208 416 -256
WIRE 416 -208 336 -208
WIRE 480 -208 416 -208
WIRE 576 -192 576 -336
WIRE 576 -192 544 -192
WIRE 608 -192 576 -192
WIRE 480 -176 416 -176
WIRE -304 -160 -304 -592
WIRE -48 -160 -48 -592
WIRE -48 -160 -304 -160
WIRE -48 -144 -304 -144
WIRE 224 -144 224 -208
WIRE 416 -144 416 -176
WIRE 224 -48 224 -80
WIRE -208 48 -208 32
WIRE -304 80 -304 -144
WIRE -48 80 -48 -144
WIRE -48 80 -304 80
WIRE 32 96 -304 96
WIRE -304 208 -304 96
WIRE 32 208 32 96
WIRE 32 208 -304 208
FLAG -208 48 0
FLAG -160 -384 0
FLAG -160 -544 +Vcc
IOPIN -160 -544 Out
FLAG -160 -272 -Vcc
IOPIN -160 -272 Out
FLAG -208 -48 ve
IOPIN -208 -48 Out
FLAG 512 -224 +Vcc
IOPIN 512 -224 In
FLAG 512 -160 -Vcc
IOPIN 512 -160 In
FLAG 608 -192 vs
IOPIN 608 -192 Out
FLAG 48 -208 ve
IOPIN 48 -208 In
FLAG 416 -144 0
FLAG 224 -48 0
SYMBOL voltage -208 -64 R0
WINDOW 123 23 95 Left 0
WINDOW 39 0 0 Left 0
WINDOW 3 -5 162 Left 0
WINDOW 0 26 65 Left 0
SYMATTR Value2 AC 1 0
SYMATTR Value ""
SYMATTR InstName V1
SYMBOL voltage -240 -544 R0
SYMATTR InstName V4
SYMATTR Value 15
SYMBOL voltage -240 -400 R0
SYMATTR InstName V5
SYMATTR Value 15
SYMBOL UniversalOpamp2 512 -192 R0
SYMATTR InstName U7
SYMBOL res 208 -352 R0
SYMATTR InstName R2
SYMATTR Value 5k
SYMBOL res 192 -224 R90
WINDOW 0 0 56 VBottom 0
WINDOW 3 32 56 VTop 0
SYMATTR InstName R1
SYMATTR Value 1k
SYMBOL cap 432 -256 R180
WINDOW 0 24 64 Left 0
WINDOW 3 24 8 Left 0
SYMATTR InstName C2
SYMATTR Value 0.23n
SYMBOL cap 240 -80 R180
WINDOW 0 24 64 Left 0
WINDOW 3 24 8 Left 0
SYMATTR InstName C1
SYMATTR Value 3.5µ
SYMBOL res 240 -192 R270
WINDOW 0 32 56 VTop 0
WINDOW 3 0 56 VBottom 0
SYMATTR InstName R3
SYMATTR Value 2k
TEXT -296 -184 Left 0 ;alimentation symétrique AOP
TEXT -272 168 Left 0 !.ac dec 1000 10 1meg
TEXT -288 -120 Left 0 ;Source d'entrée
TEXT -288 120 Left 0 ;Commande de simulation
