Version 4
SHEET 1 880 680
WIRE 96 -16 -96 -16
WIRE 304 -16 96 -16
WIRE -96 32 -96 -16
WIRE 96 48 96 -16
WIRE -224 160 -352 160
WIRE -96 160 -96 112
WIRE -96 160 -160 160
WIRE -32 160 -96 160
WIRE 96 160 96 112
WIRE 96 160 48 160
WIRE 192 160 96 160
WIRE 304 176 304 -16
WIRE 304 176 256 176
WIRE 384 176 304 176
WIRE 192 192 144 192
WIRE -688 208 -688 192
WIRE 144 240 144 192
WIRE -96 272 -96 160
WIRE -96 384 -96 352
FLAG 144 240 0
FLAG -96 384 0
FLAG 224 144 +15V
IOPIN 224 144 In
FLAG 224 208 -15V
IOPIN 224 208 In
FLAG 384 176 Vs
IOPIN 384 176 Out
FLAG -352 160 Ve
IOPIN -352 160 In
FLAG -656 -16 0
FLAG -656 -96 Ve
IOPIN -656 -96 Out
FLAG -688 192 0
FLAG -688 112 +15V
FLAG -688 288 -15V
SYMBOL res -112 256 R0
SYMATTR InstName R1
SYMATTR Value 4414
SYMBOL cap 80 48 R0
SYMATTR InstName C2
SYMATTR Value 8.8n
SYMBOL res 64 144 R90
WINDOW 0 0 56 VBottom 2
WINDOW 3 32 56 VTop 2
SYMATTR InstName R3
SYMATTR Value 15000
SYMBOL res -80 128 R180
WINDOW 0 36 76 Left 2
WINDOW 3 36 40 Left 2
SYMATTR InstName R2
SYMATTR Value 682
SYMBOL cap -160 144 R90
WINDOW 0 0 32 VBottom 2
WINDOW 3 32 32 VTop 2
SYMATTR InstName C1
SYMATTR Value 70n
SYMBOL voltage -656 -112 R0
WINDOW 123 24 34 Left 2
WINDOW 39 0 0 Left 0
SYMATTR Value2 AC 1 0
SYMATTR InstName Ventrée
SYMATTR Value ""
SYMBOL Opamps\\UniversalOpamp2 224 176 R0
SYMATTR InstName U2
SYMBOL voltage -688 192 R0
WINDOW 123 0 0 Left 0
WINDOW 39 0 0 Left 0
SYMATTR InstName V1
SYMATTR Value 15
SYMBOL voltage -688 96 R0
WINDOW 123 0 0 Left 0
WINDOW 39 0 0 Left 0
SYMATTR InstName V2
SYMATTR Value 15
TEXT -488 248 Left 2 !.ac dec 10000 1 1Meg
