Version 4
SHEET 1 1576 1140
WIRE 32 -128 -208 -128
WIRE 800 -128 48 -128
WIRE -96 -48 -128 -48
WIRE -128 -16 -128 -48
WIRE -128 80 -128 64
WIRE -128 80 -176 80
WIRE 512 80 512 32
WIRE 560 80 512 80
WIRE 688 80 640 80
WIRE -176 96 -176 80
WIRE -128 96 -128 80
WIRE -128 208 -128 176
WIRE -96 208 -128 208
WIRE -208 240 -208 -128
WIRE 32 240 32 -128
WIRE 32 240 -208 240
WIRE 624 240 624 224
WIRE 32 256 -208 256
WIRE 512 256 512 80
WIRE 592 256 512 256
WIRE 688 272 688 80
WIRE 688 272 656 272
WIRE 704 272 688 272
WIRE 736 272 704 272
WIRE 240 288 208 288
WIRE 352 288 320 288
WIRE 384 288 352 288
WIRE 512 288 464 288
WIRE 592 288 512 288
WIRE 512 320 512 288
WIRE 624 320 624 304
WIRE 352 432 352 288
WIRE 384 432 352 432
WIRE 704 432 704 272
WIRE 704 432 448 432
WIRE -208 496 -208 256
WIRE 32 496 32 256
WIRE 32 496 -208 496
WIRE 48 496 48 -128
WIRE 800 496 800 -128
WIRE 800 496 48 496
WIRE 1568 512 -208 512
WIRE -208 656 -208 512
WIRE 1568 656 1568 512
WIRE 1568 656 -208 656
FLAG 736 272 Vs
FLAG -176 96 0
FLAG -96 -48 +VCC
FLAG -96 208 -VCC
FLAG 624 224 +VCC
IOPIN 624 224 In
FLAG 624 320 -VCC
IOPIN 624 320 In
FLAG 512 -48 0
FLAG 512 384 0
FLAG 208 288 Ve
IOPIN 208 288 In
FLAG -96 416 0
FLAG -96 336 Ve
IOPIN -96 336 Out
SYMBOL voltage -128 -32 R0
WINDOW 3 38 53 Left 2
SYMATTR Value +14
SYMATTR InstName V1
SYMBOL voltage -128 80 R0
WINDOW 3 37 56 Left 2
SYMATTR Value +14
SYMATTR InstName V2
SYMBOL TL081 624 208 R0
SYMATTR InstName U1
SYMBOL res 496 -64 R0
SYMATTR InstName R3
SYMATTR Value 12000
SYMBOL res 656 64 R90
WINDOW 0 0 56 VBottom 2
WINDOW 3 32 56 VTop 2
SYMATTR InstName R4
SYMATTR Value 22000
SYMBOL cap 496 320 R0
SYMATTR InstName C2
SYMATTR Value 1.2n
SYMBOL res 480 272 R90
WINDOW 0 0 56 VBottom 2
WINDOW 3 32 56 VTop 2
SYMATTR InstName R2
SYMATTR Value 15000
SYMBOL res 336 272 R90
WINDOW 0 0 56 VBottom 2
WINDOW 3 32 56 VTop 2
SYMATTR InstName R1
SYMATTR Value 10000
SYMBOL cap 448 416 R90
WINDOW 0 0 32 VBottom 2
WINDOW 3 32 32 VTop 2
SYMATTR InstName C1
SYMATTR Value 1.5n
SYMBOL voltage -96 320 R0
WINDOW 123 24 124 Left 2
WINDOW 39 0 0 Left 0
SYMATTR Value2 AC 1 0
SYMATTR InstName V3
SYMATTR Value ""
TEXT 56 -112 Left 2 ;Sallen Key Passe Bas | Composants fixés :
TEXT -200 -112 Left 2 ;Alim AOP :
TEXT -200 272 Left 2 ;Source
TEXT -200 528 Left 2 ;Ordres
TEXT -192 624 Left 2 !.ac dec 1000 50 100k
TEXT -200 560 Left 2 ;Ordre Simul | Composants fixés :
