Version 4
SHEET 1 1156 680
WIRE 512 -128 -32 -128
WIRE 1152 -128 608 -128
WIRE 64 -32 32 -32
WIRE 208 -32 144 -32
WIRE 304 -32 208 -32
WIRE 432 -32 384 -32
WIRE 704 -32 672 -32
WIRE 864 -32 784 -32
WIRE 992 -32 928 -32
WIRE 1072 -32 992 -32
WIRE 208 16 208 -32
WIRE 432 16 432 -32
WIRE 992 16 992 -32
WIRE 1072 16 1072 -32
WIRE 208 112 208 80
WIRE 432 128 432 80
WIRE 992 128 992 96
WIRE 1072 128 1072 80
WIRE -320 160 -320 96
WIRE -32 176 -32 -128
WIRE 512 176 512 -128
WIRE 512 176 -32 176
WIRE 608 176 608 -128
WIRE 1152 176 1152 -128
WIRE 1152 176 608 176
WIRE 784 240 240 240
WIRE -320 272 -320 240
WIRE 352 336 320 336
WIRE 480 336 416 336
WIRE 496 336 480 336
WIRE 624 336 560 336
WIRE 704 336 624 336
WIRE 480 384 480 336
WIRE 624 384 624 336
WIRE 624 496 624 464
WIRE 480 512 480 464
WIRE 240 544 240 240
WIRE 784 544 784 240
WIRE 784 544 240 544
FLAG 208 112 0
FLAG 432 128 0
FLAG 432 -32 Vs1
IOPIN 432 -32 Out
FLAG 32 -32 Ve
IOPIN 32 -32 In
FLAG -320 272 0
FLAG -320 96 Ve
IOPIN -320 96 Out
FLAG 992 128 0
FLAG 1072 128 0
FLAG 1072 -32 Vs2
IOPIN 1072 -32 Out
FLAG 672 -32 Ve
IOPIN 672 -32 In
FLAG 624 496 0
FLAG 480 512 0
FLAG 704 336 Vs3
IOPIN 704 336 Out
FLAG 320 336 Ve
IOPIN 320 336 In
SYMBOL res 160 -48 R90
WINDOW 0 0 56 VBottom 2
WINDOW 3 32 56 VTop 2
SYMATTR InstName R1
SYMATTR Value {R1}
SYMBOL res 288 -16 R270
WINDOW 0 32 56 VTop 2
WINDOW 3 0 56 VBottom 2
SYMATTR InstName R2
SYMATTR Value {R2}
SYMBOL cap 224 80 R180
WINDOW 0 24 56 Left 2
WINDOW 3 24 8 Left 2
SYMATTR InstName C1
SYMATTR Value {C1}
SYMBOL cap 416 16 R0
SYMATTR InstName C2
SYMATTR Value {C2}
SYMBOL voltage -320 144 R0
WINDOW 123 24 124 Left 2
WINDOW 39 0 0 Left 0
SYMATTR Value2 AC 1 0
SYMATTR InstName V1
SYMATTR Value PULSE(0 5 0 0.1p 0.1p 1m 2m)
SYMBOL res 800 -48 R90
WINDOW 0 0 56 VBottom 2
WINDOW 3 32 56 VTop 2
SYMATTR InstName R3
SYMATTR Value {R1}
SYMBOL res 1008 112 R180
WINDOW 0 36 76 Left 2
WINDOW 3 36 40 Left 2
SYMATTR InstName R4
SYMATTR Value {R2}
SYMBOL cap 928 -48 R90
WINDOW 0 0 32 VBottom 2
WINDOW 3 32 32 VTop 2
SYMATTR InstName C3
SYMATTR Value {C1}
SYMBOL cap 1056 16 R0
SYMATTR InstName C4
SYMATTR Value {C2}
SYMBOL res 496 480 R180
WINDOW 0 36 76 Left 2
WINDOW 3 36 40 Left 2
SYMATTR InstName R5
SYMATTR Value {R1}
SYMBOL res 640 480 R180
WINDOW 0 36 76 Left 2
WINDOW 3 36 40 Left 2
SYMATTR InstName R6
SYMATTR Value {R2}
SYMBOL cap 416 320 R90
WINDOW 0 0 32 VBottom 2
WINDOW 3 32 32 VTop 2
SYMATTR InstName C5
SYMATTR Value {C1}
SYMBOL cap 560 320 R90
WINDOW 0 0 32 VBottom 2
WINDOW 3 32 32 VTop 2
SYMATTR InstName C6
SYMATTR Value {C2}
TEXT -392 312 Left 2 !;tran 10m
TEXT -392 336 Left 2 !.ac dec 1000 1 10meg
TEXT -16 -104 Left 2 ;RC-RC passe bas
TEXT 624 -104 Left 2 ;RC-RC passe bande
TEXT 256 264 Left 2 ;RC-RC passe haut
TEXT -392 376 Left 2 !.param R1 = 10k R2 = 33k C1 = 1n C2 = 22n
