Version 4
SHEET 1 880 680
WIRE 464 -112 464 -144
WIRE 464 32 464 -32
WIRE 496 32 464 32
WIRE 704 32 576 32
WIRE 464 128 464 32
WIRE 480 128 464 128
WIRE 704 144 704 32
WIRE 704 144 544 144
WIRE 752 144 704 144
WIRE 816 144 752 144
WIRE 48 160 16 160
WIRE 208 160 128 160
WIRE 240 160 208 160
WIRE 320 160 304 160
WIRE 448 160 320 160
WIRE 480 160 448 160
WIRE 320 192 320 160
WIRE 448 192 448 160
WIRE 320 304 320 256
WIRE 400 304 320 304
WIRE 448 304 448 272
WIRE 448 304 400 304
WIRE 400 320 400 304
WIRE 208 368 208 160
WIRE 752 368 752 144
WIRE 752 368 288 368
FLAG 464 -144 0
FLAG 400 320 0
FLAG 816 144 Vs
FLAG 512 112 +15
IOPIN 512 112 In
FLAG 512 176 -15
IOPIN 512 176 In
FLAG 16 160 Ve
IOPIN 16 160 In
FLAG -112 -240 0
FLAG -128 -64 0
FLAG -160 176 0
FLAG -160 96 +15
IOPIN -160 96 Out
FLAG -128 -144 -15
IOPIN -128 -144 Out
FLAG -112 -320 Ve
IOPIN -112 -320 Out
SYMBOL res 144 144 R90
WINDOW 0 0 56 VBottom 2
WINDOW 3 32 56 VTop 2
SYMATTR InstName R1
SYMATTR Value 2200
SYMBOL res 464 288 R180
WINDOW 0 36 76 Left 2
WINDOW 3 36 40 Left 2
SYMATTR InstName R2
SYMATTR Value 1000
SYMBOL res 192 384 R270
WINDOW 0 32 56 VTop 2
WINDOW 3 0 56 VBottom 2
SYMATTR InstName R5
SYMATTR Value 3300
SYMBOL cap 304 192 R0
SYMATTR InstName C2
SYMATTR Value 1E-08
SYMBOL cap 304 144 R90
WINDOW 0 0 32 VBottom 2
WINDOW 3 32 32 VTop 2
SYMATTR InstName C1
SYMATTR Value 1E-07
SYMBOL TL081 512 80 R0
SYMATTR InstName U1
SYMBOL res 592 16 R90
WINDOW 0 0 56 VBottom 2
WINDOW 3 32 56 VTop 2
SYMATTR InstName R4
SYMATTR Value 12000
SYMBOL res 480 -16 R180
WINDOW 0 36 76 Left 2
WINDOW 3 36 40 Left 2
SYMATTR InstName R3
SYMATTR Value 10000
SYMBOL voltage -112 -336 R0
WINDOW 123 24 44 Left 2
WINDOW 39 0 0 Left 0
SYMATTR Value2 AC 1 0
SYMATTR InstName Ve
SYMATTR Value PULSE(0 5 1ms 0.1p 0.1p 10ms)
SYMBOL voltage -128 -160 R0
SYMATTR InstName -15
SYMATTR Value -15
SYMBOL voltage -160 80 R0
SYMATTR InstName +15
SYMATTR Value 15
TEXT -232 416 Left 2 !.ac dec 1000 100 100000
