Version 4
SHEET 1 1268 680
WIRE 1232 -1072 448 -1072
WIRE -432 -1056 -1184 -1056
WIRE 352 -1056 -400 -1056
WIRE -32 -960 -80 -960
WIRE 80 -960 32 -960
WIRE 624 -880 560 -880
WIRE 800 -880 704 -880
WIRE 1024 -880 880 -880
WIRE 1088 -880 1024 -880
WIRE -928 -864 -992 -864
WIRE -816 -864 -864 -864
WIRE -608 -864 -736 -864
WIRE -544 -864 -608 -864
WIRE -80 -864 -80 -960
WIRE -80 -864 -208 -864
WIRE -32 -864 -80 -864
WIRE 80 -864 80 -960
WIRE 80 -864 48 -864
WIRE 176 -864 80 -864
WIRE 240 -864 176 -864
WIRE 1024 -832 1024 -880
WIRE -608 -816 -608 -864
WIRE 176 -816 176 -864
WIRE 1024 -720 1024 -768
WIRE -608 -688 -608 -736
WIRE 176 -688 176 -736
WIRE 448 -640 448 -1072
WIRE 1232 -640 1232 -1072
WIRE 1232 -640 448 -640
WIRE -1184 -624 -1184 -1056
WIRE -432 -624 -432 -1056
WIRE -432 -624 -1184 -624
WIRE -400 -624 -400 -1056
WIRE 352 -624 352 -1056
WIRE 352 -624 -400 -624
WIRE 352 -592 -400 -592
WIRE 1264 -592 480 -592
WIRE -192 -400 -272 -400
WIRE -16 -400 -112 -400
WIRE 64 -400 -16 -400
WIRE 176 -400 64 -400
WIRE 240 -400 176 -400
WIRE 656 -400 592 -400
WIRE 848 -400 736 -400
WIRE 1056 -400 912 -400
WIRE 1120 -400 1056 -400
WIRE -16 -352 -16 -400
WIRE 64 -352 64 -400
WIRE 176 -352 176 -400
WIRE 1056 -352 1056 -400
WIRE -16 -256 -16 -288
WIRE 64 -256 64 -272
WIRE 64 -256 -16 -256
WIRE 176 -256 176 -272
WIRE 176 -256 64 -256
WIRE 176 -224 176 -256
WIRE 1056 -224 1056 -272
WIRE -400 -160 -400 -592
WIRE 352 -160 352 -592
WIRE 352 -160 -400 -160
WIRE 480 -160 480 -592
WIRE 1264 -160 1264 -592
WIRE 1264 -160 480 -160
FLAG -640 -432 0
FLAG -640 -512 ve
IOPIN -640 -512 Out
FLAG -272 -400 ve
IOPIN -272 -400 In
FLAG 240 -400 vs4
FLAG 592 -400 ve
IOPIN 592 -400 In
FLAG 1120 -400 vs2
FLAG 176 -224 0
FLAG 1056 -224 0
FLAG -208 -864 ve
IOPIN -208 -864 In
FLAG 240 -864 vs5
FLAG 176 -688 0
FLAG -992 -864 ve
IOPIN -992 -864 In
FLAG -544 -864 vs3
FLAG -608 -688 0
FLAG 560 -880 ve
IOPIN 560 -880 In
FLAG 1088 -880 vs1
FLAG 1024 -720 0
SYMBOL voltage -640 -528 R0
WINDOW 123 24 34 Left 2
WINDOW 39 0 0 Left 0
SYMATTR Value2 AC 1 0
SYMATTR InstName V1
SYMATTR Value ""
SYMBOL res 192 -256 R180
WINDOW 0 36 76 Left 2
WINDOW 3 36 40 Left 2
SYMATTR InstName RPH
SYMATTR Value {R}
SYMBOL cap 0 -288 R180
WINDOW 0 24 56 Left 2
WINDOW 3 24 8 Left 2
SYMATTR InstName CPH
SYMATTR Value {C}
SYMBOL ind 48 -368 R0
SYMATTR InstName LPH
SYMATTR Value {L}
SYMBOL res 752 -416 R90
WINDOW 0 0 56 VBottom 2
WINDOW 3 32 56 VTop 2
SYMATTR InstName RPB
SYMATTR Value {R}
SYMBOL cap 912 -416 R90
WINDOW 0 0 32 VBottom 2
WINDOW 3 32 32 VTop 2
SYMATTR InstName CPB
SYMATTR Value {C}
SYMBOL ind 1040 -368 R0
SYMATTR InstName LPB
SYMATTR Value {L}
SYMBOL res 192 -720 R180
WINDOW 0 36 76 Left 2
WINDOW 3 36 40 Left 2
SYMATTR InstName RR
SYMATTR Value {R}
SYMBOL cap 32 -976 R90
WINDOW 0 0 32 VBottom 2
WINDOW 3 32 32 VTop 2
SYMATTR InstName CR
SYMATTR Value {C}
SYMBOL ind -48 -848 R270
WINDOW 0 32 56 VTop 2
WINDOW 3 5 56 VBottom 2
SYMATTR InstName LR
SYMATTR Value {L}
SYMBOL res -592 -720 R180
WINDOW 0 36 76 Left 2
WINDOW 3 36 40 Left 2
SYMATTR InstName R1
SYMATTR Value {R}
SYMBOL cap -864 -880 R90
WINDOW 0 0 32 VBottom 2
WINDOW 3 32 32 VTop 2
SYMATTR InstName C1
SYMATTR Value {C}
SYMBOL ind -832 -848 R270
WINDOW 0 32 56 VTop 2
WINDOW 3 5 56 VBottom 2
SYMATTR InstName L1
SYMATTR Value {L}
SYMBOL res -208 -384 R270
WINDOW 0 32 56 VTop 2
WINDOW 3 0 56 VBottom 2
SYMATTR InstName R5
SYMATTR Value {R2}
SYMBOL res 720 -896 R90
WINDOW 0 0 56 VBottom 2
WINDOW 3 32 56 VTop 2
SYMATTR InstName RPB1
SYMATTR Value {R}
SYMBOL cap 1040 -768 R180
WINDOW 0 24 56 Left 2
WINDOW 3 24 8 Left 2
SYMATTR InstName CPB1
SYMATTR Value {C}
SYMBOL ind 784 -864 R270
WINDOW 0 32 56 VTop 2
WINDOW 3 5 56 VBottom 2
SYMATTR InstName LPB1
SYMATTR Value {L}
TEXT -1272 -216 Left 2 !.ac dec 100 10 10000000
TEXT -368 -560 Left 2 ;RLC PASSE BANDE Tmax <1
TEXT 504 -560 Left 2 ;RLC PASSE HAUT
TEXT -368 -1024 Left 2 ;RLC REJECTEUR
TEXT -1152 -1024 Left 2 ;RLC PASSE BANDE Tmax = 1
TEXT 472 -1040 Left 2 ;RLC PASSE BAS
TEXT -1264 -280 Left 2 !.param R=1k C=100n L=0.05m R2=2.2k
